[TITLE]


[JUNCTIONS]
;ID              	Elev        	Demand      	Pattern         
 1               	24.900000   	0.000000    	                	;
 2               	29.900000   	48.970000   	                	;
 3               	31.400000   	37.700000   	                	;
 4               	40.770000   	52.410000   	                	;
 5               	24.300000   	20.650000   	                	;
 6               	28.000000   	231.750000  	                	;
 7               	22.400000   	65.660000   	                	;
 8               	31.400000   	29.120000   	                	;
 9               	21.900000   	9.950000    	                	;
 10              	17.600000   	3.870000    	                	;
 11              	17.800000   	17.500000   	                	;
 12              	22.900000   	10.430000   	                	;
 13              	14.100000   	9.870000    	                	;
 14              	17.400000   	11.050000   	                	;
 15              	19.400000   	26.270000   	                	;
 16              	17.100000   	14.530000   	                	;
 17              	19.900000   	17.660000   	                	;
 18              	20.600000   	17.330000   	                	;
 19              	36.400000   	8.290000    	                	;
 20              	23.500000   	79.860000   	                	;
 21              	26.300000   	115.740000  	                	;
 22              	34.300000   	7.360000    	                	;
 23              	20.800000   	9.360000    	                	;
 24              	26.300000   	23.950000   	                	;
 25              	15.400000   	20.380000   	                	;
 26              	11.400000   	26.380000   	                	;
 27              	11.400000   	20.780000   	                	;
 28              	11.100000   	22.780000   	                	;
 29              	10.500000   	34.560000   	                	;
 30              	11.600000   	24.050000   	                	;
 31              	25.200000   	18.370000   	                	;
 32              	12.900000   	47.280000   	                	;
 33              	12.900000   	54.410000   	                	;
 34              	18.200000   	0.000000    	                	;
 35              	25.200000   	7.720000    	                	;
 add_node-25-1   	18.500000   	0.000000    	                	;
 add_node-39-1   	13.500000   	0.000000    	                	;
 add_node-46-1   	24.900000   	0.000000    	                	;
 add_node-25-1-b-12-r	18.500000   	0.000000    	                	;

[RESERVOIRS]
;ID              	Head        	Pattern         
 99              	58.000000   	                	;
 add_node-25-1-2-R2-r	18.500000   	                	;
 add_node-25-1-b-12-r-3-R2-r	18.500000   	                	;
 add_node-39-1-R2-r	13.500000   	                	;
 add_node-46-1-R2-r	24.900000   	                	;

[TANKS]
;ID              	Elevation   	InitLevel   	MinLevel    	MaxLevel    	Diameter    	MinVol      	VolCurve

[PIPES]
;ID              	Node1           	Node2           	Length      	Diameter    	Roughness   	MinorLoss   	Status
 1               	99              	1               	200.000000  	1100.000000 	100.000000  	0.000000    	Open  	;
 2               	1               	2               	470.000000  	1100.000000 	100.000000  	0.000000    	Open  	;
 3               	2               	3               	80.000000   	1100.000000 	100.000000  	0.000000    	Open  	;
 4               	3               	4               	370.000000  	900.000000  	100.000000  	0.000000    	Open  	;
 5               	4               	6               	410.000000  	900.000000  	100.000000  	0.000000    	Open  	;
 6               	6               	7               	540.000000  	800.000000  	100.000000  	0.000000    	Open  	;
 7               	7               	11              	530.000000  	600.000000  	100.000000  	0.000000    	Open  	;
 8               	11              	16              	130.000000  	500.000000  	100.000000  	0.000000    	Open  	;
 9               	16              	17              	470.000000  	500.000000  	100.000000  	0.000000    	Open  	;
 10              	3               	4               	370.000000  	600.000000  	100.000000  	0.000000    	Open  	;
 11              	3               	5               	470.000000  	100.000000  	100.000000  	0.000000    	Open  	;
 12              	4               	5               	380.000000  	100.000000  	100.000000  	0.000000    	Open  	;
 13              	4               	6               	410.000000  	600.000000  	100.000000  	0.000000    	Open  	;
 14              	6               	7               	540.000000  	600.000000  	100.000000  	0.000000    	Open  	;
 15              	7               	8               	170.000000  	200.000000  	100.000000  	0.000000    	Open  	;
 16              	9               	8               	390.000000  	80.000000   	100.000000  	0.000000    	Open  	;
 17              	5               	9               	510.000000  	150.000000  	100.000000  	0.000000    	Open  	;
 18              	9               	10              	600.000000  	150.000000  	100.000000  	0.000000    	Open  	;
 19              	7               	11              	530.000000  	600.000000  	100.000000  	0.000000    	Open  	;
 20              	11              	16              	130.000000  	600.000000  	100.000000  	0.000000    	Open  	;
 21              	11              	12              	530.000000  	400.000000  	100.000000  	0.000000    	Open  	;
 22              	10              	15              	560.000000  	150.000000  	100.000000  	0.000000    	Open  	;
 23              	15              	14              	440.000000  	400.000000  	100.000000  	0.000000    	Open  	;
 24              	12              	14              	160.000000  	400.000000  	100.000000  	0.000000    	Open  	;
 25              	12              	13              	350.000000  	150.000000  	100.000000  	0.000000    	Closed	;
 26              	16              	13              	170.000000  	150.000000  	100.000000  	0.000000    	Open  	;
 27              	16              	19              	350.000000  	200.000000  	100.000000  	0.000000    	Open  	;
 28              	19              	20              	590.000000  	100.000000  	100.000000  	0.000000    	Open  	;
 29              	19              	18              	400.000000  	80.000000   	100.000000  	0.000000    	Open  	;
 30              	16              	17              	470.000000  	600.000000  	100.000000  	0.000000    	Open  	;
 31              	13              	27              	350.000000  	100.000000  	100.000000  	0.000000    	Open  	;
 32              	27              	14              	540.000000  	300.000000  	100.000000  	0.000000    	Open  	;
 33              	27              	26              	230.000000  	100.000000  	100.000000  	0.000000    	Open  	;
 34              	25              	26              	270.000000  	100.000000  	100.000000  	0.000000    	Open  	;
 35              	26              	28              	400.000000  	100.000000  	100.000000  	0.000000    	Open  	;
 36              	15              	28              	620.000000  	150.000000  	100.000000  	0.000000    	Open  	;
 37              	26              	29              	600.000000  	100.000000  	100.000000  	0.000000    	Open  	;
 38              	30              	29              	350.000000  	400.000000  	100.000000  	0.000000    	Open  	;
 39              	25              	30              	540.000000  	700.000000  	100.000000  	0.000000    	Closed	;
 40              	30              	35              	370.000000  	450.000000  	100.000000  	0.000000    	Open  	;
 41              	17              	25              	90.000000   	700.000000  	100.000000  	0.000000    	Open  	;
 42              	25              	31              	540.000000  	100.000000  	100.000000  	0.000000    	Open  	;
 43              	17              	18              	220.000000  	700.000000  	100.000000  	0.000000    	Open  	;
 44              	18              	24              	390.000000  	700.000000  	100.000000  	0.000000    	Open  	;
 45              	24              	23              	400.000000  	700.000000  	100.000000  	0.000000    	Open  	;
 46              	20              	24              	560.000000  	80.000000   	100.000000  	0.000000    	Closed	;
 47              	11              	20              	900.000000  	500.000000  	100.000000  	0.000000    	Open  	;
 48              	20              	21              	310.000000  	500.000000  	100.000000  	0.000000    	Open  	;
 49              	21              	23              	300.000000  	300.000000  	100.000000  	0.000000    	Open  	;
 50              	20              	23              	510.000000  	400.000000  	100.000000  	0.000000    	Open  	;
 51              	15              	22              	250.000000  	700.000000  	100.000000  	0.000000    	Open  	;
 52              	23              	32              	350.000000  	300.000000  	100.000000  	0.000000    	Open  	;
 53              	31              	32              	380.000000  	100.000000  	100.000000  	0.000000    	Open  	;
 54              	32              	33              	690.000000  	200.000000  	100.000000  	0.000000    	Open  	;
 55              	31              	35              	670.000000  	200.000000  	100.000000  	0.000000    	Open  	;
 56              	33              	34              	870.000000  	200.000000  	100.000000  	0.000000    	Open  	;
 57              	35              	34              	620.000000  	200.000000  	100.000000  	0.000000    	Open  	;
 58              	29              	22              	580.000000  	400.000000  	100.000000  	0.000000    	Open  	;
 addP-25-1       	12              	add_node-25-1   	175.000000  	150.000000  	100.000000  	0.000000    	Open  	;
 addP-25-2       	13              	add_node-25-1-b-12-r	175.000000  	150.000000  	100.000000  	0.000000    	Open  	;
 addP-39-1       	25              	add_node-39-1   	270.000000  	700.000000  	100.000000  	0.000000    	Open  	;
 addP-39-2       	add_node-39-1   	30              	270.000000  	700.000000  	100.000000  	0.000000    	Open  	;
 addP-46-1       	20              	add_node-46-1   	280.000000  	80.000000   	100.000000  	0.000000    	Open  	;
 addP-46-2       	add_node-46-1   	24              	280.000000  	80.000000   	100.000000  	0.000000    	Open  	;
 add_node-25-1-2-R2-r-pipe2-r	add_node-25-1   	add_node-25-1-2-R2-r	0.100000    	150.000000  	1000000.000000	0.000000    	CV    	;
 add_node-25-1-b-12-r-3-R2-r-pipe-22-r	add_node-25-1-b-12-r	add_node-25-1-b-12-r-3-R2-r	0.100000    	150.000000  	1000000.000000	0.000000    	CV    	;
 add_node-39-1leak-pipe2-r	add_node-39-1   	add_node-39-1-R2-r	0.152400    	175.000000  	1000000.000000	2.777800    	CV    	;
 add_node-46-1leak-pipe2-r	add_node-46-1   	add_node-46-1-R2-r	0.152400    	20.000000   	1000000.000000	2.777800    	CV    	;

[PUMPS]
;ID              	Node1           	Node2           	Parameters

[VALVES]
;ID              	Node1           	Node2           	Diameter    	Type	Setting     	MinorLoss   

[TAGS]

[DEMANDS]
;Junction        	Demand      	Pattern         	Category

[STATUS]
;ID              	Status/Setting

[PATTERNS]
;ID              	Multipliers

[CURVES]
;ID              	X-Value     	Y-Value

[CONTROLS]

[RULES]

[ENERGY]
 Global Efficiency  	75.0000
 Global Price       	0
 Demand Charge      	0.0000

[EMITTERS]
;Junction        	Coefficient

[QUALITY]
;Node            	InitQual

[SOURCES]
;Node            	Type        	Quality     	Pattern

[REACTIONS]
;Type     	Pipe/Tank       	Coefficient


[REACTIONS]
 Order Bulk            	1.000000
 Order Tank            	1.000000
 Order Wall            	1
 Global Bulk           	0.000000
 Global Wall           	0.000000
 Limiting Potential    	0
 Roughness Correlation 	0

[MIXING]
;Tank            	Model

[TIMES]
 Duration           	0:00 
 Hydraulic Timestep 	1:00 
 Quality Timestep   	0:06 
 Pattern Timestep   	1:00 
 Pattern Start      	0:00 
 Report Timestep    	1:00 
 Report Start       	0:00 
 Start ClockTime    	0:00:00
 Statistic          	NONE

[REPORT]
 Status             	No
 Summary            	No
 Page               	0

[OPTIONS]
 Units              	LPS
 Headloss           	H-W
 Specific Gravity   	1.000000
 Viscosity          	1.000000
 Trials             	200
 Accuracy           	0.00100000
 CHECKFREQ          	2
 MAXCHECK           	10
 DAMPLIMIT          	0.00000000
 Unbalanced         	STOP
 Pattern            	1
 Demand Multiplier  	1.0000
 Emitter Exponent   	0.5000
 Quality            	NONE mg/L
 Diffusivity        	1.000000
 Tolerance          	0.01000000

[COORDINATES]
;Node            	X-Coord         	Y-Coord
 1               	-2260.03        	6736.47         
 2               	-2260.03        	7905.76         
 3               	-881.33         	7923.21         
 4               	514.83          	7888.31         
 5               	-951.13         	6736.47         
 6               	1806.28         	7853.40         
 7               	1771.38         	6684.12         
 8               	1806.28         	5619.55         
 9               	-898.78         	5532.29         
 10              	-916.23         	4258.29         
 11              	3289.70         	6684.12         
 12              	3254.80         	5549.74         
 13              	4755.67         	5479.93         
 14              	3237.35         	4171.03         
 15              	1003.49         	2739.97         
 16              	4755.67         	6684.12         
 17              	6134.38         	6614.31         
 18              	6169.28         	7748.69         
 19              	4703.32         	7748.69         
 20              	4685.86         	8883.07         
 21              	6221.64         	9685.86         
 22              	986.04          	1553.23         
 23              	7757.42         	8917.98         
 24              	7739.97         	7731.24         
 25              	6099.48         	5427.57         
 26              	6134.38         	4240.84         
 27              	4703.32         	4153.58         
 28              	3184.99         	2670.16         
 29              	6134.38         	1535.78         
 30              	7757.42         	4258.29         
 31              	7739.97         	5532.29         
 32              	9450.26         	7766.14         
 33              	11090.75        	7766.14         
 34              	11125.65        	5532.29         
 35              	9380.45         	5479.93         
 add_node-25-1   	4005.24         	5514.84         
 add_node-39-1   	6928.45         	4842.93         
 add_node-46-1   	6212.92         	8307.16         
 add_node-25-1-b-12-r	4005.24         	5514.84         
 99              	-2277.49        	5479.93         
 add_node-25-1-2-R2-r	4005.24         	5514.84         
 add_node-25-1-b-12-r-3-R2-r	4005.24         	5514.84         
 add_node-39-1-R2-r	6928.45         	4842.93         
 add_node-46-1-R2-r	6212.92         	8307.16         

[VERTICES]
;Link            	X-Coord         	Y-Coord
 3               	-811.52         	7923.21         
 4               	-218.15         	8342.06         
 5               	1125.65         	8307.16         
 6               	2207.68         	7347.29         
 7               	2696.34         	6963.35         
 8               	4109.95         	7015.71         
 9               	5471.20         	6876.09         

[LABELS]
;X-Coord           Y-Coord          Label & Anchor Node

[BACKDROP]
 DIMENSIONS     	-2947.65        	1128.28         	11795.81        	10093.36        
 UNITS          	None
 FILE           	
 OFFSET         	0.00            	0.00            

[END]
